/*--------------------------------*- C++ -*----------------------------------*\
  =========                 |
  \\      /  F ield         | OpenFOAM: The Open Source CFD Toolbox
   \\    /   O peration     | Website:  https://openfoam.org
    \\  /    A nd           | Version:  11
     \\/     M anipulation  |
\*---------------------------------------------------------------------------*/
FoamFile
{
    format      ascii;
    class       dictionary;
    location    "system";
    object      controlDict;
}
// * * * * * * * * * * * * * * * * * * * * * * * * * * * * * * * * * * * * * //

application     foamRun;

solver          incompressibleFluid;

startFrom       startTime;

startTime       0;

stopAt          endTime;

endTime         500;

deltaT          1;

writeControl    timeStep;

writeInterval   50;

purgeWrite      0;

writeFormat     ascii;

writePrecision  6;

writeCompression off;

timeFormat      general;

timePrecision   6;

runTimeModifiable true;

functions 
{
    forceCoeffs 
    {
    	type            forceCoeffs;
    	libs ("libforces.so"); // 라이브러리 로드
    	writeControl    timeStep;            // 변경: 'outputControl' -> 'writeControl'
    	writeInterval   1;                   // 변경: 'outputInterval' -> 'writeInterval'

    	patches         ( "walls" );         // 계산할 표면
    	pName           p;                   // 압력 필드 이름
    	UName           U;                   // 속도 필드 이름
    	rhoName         rhoInf;              // 유체 밀도(비압축성 유동의 경우 'rhoInf'를 사용)
    	log             true;                // 로그 파일에 결과 기록
    	rhoInf          1.225;               // 유입 유체 밀도 (kg/m^3)
    	CofR            (0.25 0 0);          // 회전 중심 (x y z)
    	pitchAxis       (0 0 1);             // 피치 축 (x y z)

    	liftDir         (0 1 0);             // 양력 방향
    	dragDir         (1 0 0);             // 항력 방향
    	magUInf         222;               // 유입 속도 (m/s)
    	lRef            1;                   // 참조 길이 (m)
    	Aref            0.75;                // 참조 면적 (m^2)
    }
}
// ************************************************************************* //